2
 generated by VMD
  P        119.020004       36.810001       58.119999
  B        136.190002        4.130000       19.330000
2
 generated by VMD
  P        120.070000       41.840000       58.020000
  B        129.720001        3.710000       23.680000
2
 generated by VMD
  P        122.139999       42.770000       54.450001
  B        130.729996        4.720000       24.300001
2
 generated by VMD
  P          1.190000       46.650002       61.880001
  B          9.160000        6.000000       30.340000

